opendss/DSSfiles/Run_DailyHourly.dss
! Daily Power Flow Analysis with Hourly Resolution
! Modified from IEEE 123 Bus Test Case for hourly time-series analysis

Compile (Master.dss)

Set MaxControlIter=30

! DER equipment for microgrid
new Transformer.TSto1 phases=3 windings=2 buses=(StoBus 101) conns=(delta wye) kvs=(0.48 0.416) kvas=(1000 1000) taps='1 1' XHL=0.5
new Transformer.TPV1 phases=3 windings=2 buses=(PVBus 108) conns=(wye delta) kvs=(0.48 0.416) kvas=(1000 1000) taps='1 1' XHL=0.5

New "Storage.mystorage" phases=3 conn=delta bus1=StoBus kV=0.48 kva=800 kWrated=800 kWhrated=6000 %stored=100 %reserve=20 
~ %EffCharge=90 %EffDischarge=90 %IdlingkW=1 %R=50 %X=50 State=DISCHARGING kP=0.3 KVDC=0.700 PITol=0.1

New "LoadShape.pvshape" npts=1440 minterval=1 mult=[ 0.00384025 0.00384025 0.00384025 0.00384025 0.00384025 0.00384025 0.00384025 0.00384025 0.00384025 0.00384025 0.00384025 0.00384025 0.00384025 0.00384025 0.00384025 0.00384025 0.00384025 0.00384025 0.00384025 0.00384025 0.00384025 0.00384025 0.00384025 0.00384025 0.00384025 0.00384025 0.00384025 0.00384025 0.00384025 0.00384025 0.00384025 0.00384025 0.00384025 0.00384025 0.00384025 0.00384025 0.00384025 0.00384025 0.00384025 0.00384025 0.00384025 0.00384025 0.00384025 0.00384025 0.00384025 0.00384025 0.00384025 0.00384025 0.00384025 0.00384025 0.00384025 0.00384025 0.00384025 0.00384025 0.00384025 0.00384025 0.00384025 0.00384025 0.00384025 0.00384025 0.00384025 0.00384025 0.00384025 0.00384025 0.00384025 0.00384025 0.00384025 0.00384025 0.00384025 0.00384025 0.00384025 0.00384025 0.00384025 0.00384025 0.00384025 0.00384025 0.00384025 0.00384025 0.00384025 0.00384025 0.00384025 0.00384025 0.00384025 0.00384025 0.00384025 0.00384025 0.00384025 0.00384025 0.00384025 0.00384025 0.00384025 0.00384025 0.00384025 0.00384025 0.00384025 0.00384025 0.00384025 0.00384025 0.00384025 0.00384025 0.00384025 0.00384025 0.00384025 0.00384025 0.00384025 0.00384025 0.00384025 0.00384025 0.00384025 0.00384025 0.00384025 0.00384025 0.00384025 0.00384025 0.00384025 0.00384025 0.00384025 0.00384025 0.00384025 0.00384025 0.00384025 0.00384025 0.00384025 0.00384025 0.00384025 0.00384025 0.00384025 0.00384025 0.00384025 0.00384025 0.00384025 0.00384025 0.00384025 0.00384025 0.00384025 0.00384025 0.00384025 0.00384025 0.00384025 0.00384025 0.00384025 0.00384025 0.00384025 0.00384025 0.00384025 0.00384025 0.00384025 0.00384025 0.00384025 0.00384025 0.00384025 0.00384025 0.00384025 0.00384025 0.00384025 0.00384025 0.00384025 0.00384025 0.00384025 0.00384025 0.00384025 0.00384025 0.00384025 0.00384025 0.00384025 0.00384025 0.00384025 0.00384025 0.00384025 0.00384025 0.00384025 0.00384025 0.00384025 0.00384025 0.00384025 0.00384025 0.00384025 0.00384025 0.00384025 0.00384025 0.00384025 0.00384025 0.00384025 0.00384025 0.00384025 0.00384025 0.00384025 0.00384025 0.00384025 0.00384025 0.00384025 0.00384025 0.00384025 0.00384025 0.00384025 0.00384025 0.00384025 0.00384025 0.00384025 0.00384025 0.00384025 0.00384025 0.00384025 0.00384025 0.00384025 0.00384025 0.00384025 0.00384025 0.00384025 0.00384025 0.00384025 0.00384025 0.00384025 0.00384025 0.00384025 0.00384025 0.00384025 0.00384025 0.00384025 0.00384025 0.00384025 0.00384025 0.00384025 0.00384025 0.00384025 0.00384025 0.00384025 0.00384025 0.00384025 0.00384025 0.00384025 0.00384025 0.00384025 0.00384025 0.00384025 0.00384025 0.00384025 0.00384025 0.00384025 0.00384025 0.00384025 0.00384025 0.00384025 0.00384025 0.00384025 0.00384025 0.00384025 0.00384025 0.00384025 0.00384025 0.00384025 0.00384025 0.00384025 0.00384025 0.00384025 0.00384025 0.00384025 0.00384025 0.00384025 0.00384025 0.00384025 0.00384025 0.00384025 0.00384025 0.00384025 0.00384025 0.00384025 0.00384025 0.00384025 0.00384025 0.00384025 0.00384025 0.00384025 0.00384025 0.00384025 0.00384025 0.00384025 0.00384025 0.00384025 0.00384025 0.00384025 0.00384025 0.00384025 0.00384025 0.00384025 0.00384025 0.00384025 0.00384025 0.00384025 0.00384025 0.00384025 0.00384025 0.00384025 0.00384025 0.00384025 0.00384025 0.00384025 0.00384025 0.00384025 0.00384025 0.00384025 0.00384025 0.00384025 0.00384025 0.00384025 0.00384025 0.00384025 0.00384025 0.00384025 0.00384025 0.00384025 0.00384025 0.00384025 0.00384025 0.00384025 0.00384025 0.00384025 0.00384025 0.00384025 0.00384025 0.00384025 0.00384025 0.00384025 0.00384025 0.00384025 0.00384025 0.00384025 0.00384025 0.00384025 0.00384025 0.00384025 0.00384025 0.00384025 0.00384025 0.00384025 0.00384025 0.00384025 0.00384025 0.00460829 0.00614439 0.00844854 0.0115207 0.0145929 0.0176651 0.0192012 0.0199693 0.0207373 0.0215054 0.0215054 0.0215054 0.0215054 0.0222734 0.0230415 0.0230415 0.0238095 0.0245776 0.0245776 0.0245776 0.0245776 0.0253456 0.0261137 0.0261137 0.0261137 0.0276498 0.0284178 0.0299539 0.03149 0.0330261 0.0353303 0.0384025 0.0407066 0.0437788 0.0460829 0.047619 0.0491551 0.0506912 0.0514593 0.0514593 0.0514593 0.0499232 0.0499232 0.0506912 0.0514593 0.0514593 0.0529954 0.0529954 0.0545315 0.0576037 0.06298 0.0675883 0.0576037 0.0506912 0.0499232 0.0491551 0.0506912 0.0583717 0.0675883 0.0698925 0.0668203 0.0614439 0.0591398 0.062212 0.0660522 0.0698925 0.0691244 0.0814132 0.111367 0.133641 0.152074 0.145161 0.142857 0.132104 0.139017 0.144393 0.15745 0.15361 0.15361 0.165131 0.176651 0.184332 0.193548 0.195084 0.197389 0.1851 0.167435 0.141321 0.151306 0.175883 0.193548 0.185868 0.187404 0.198157 0.177419 0.167435 0.184332 0.200461 0.206605 0.209677 0.195084 0.196621 0.208141 0.215054 0.221966 0.215054 0.202765 0.215054 0.218894 0.236559 0.240399 0.238095 0.208141 0.232719 0.237327 0.230415 0.215822 0.213518 0.188172 0.198157 0.221966 0.241167 0.248848 0.249616 0.248848 0.250384 0.256528 0.258833 0.262673 0.264977 0.268049 0.273425 0.277266 0.280338 0.284178 0.288018 0.291859 0.295699 0.298771 0.302611 0.309524 0.31874 0.328725 0.337942 0.311828 0.310292 0.340246 0.295699 0.301075 0.302611 0.309524 0.239631 0.163594 0.173579 0.28341 0.374808 0.376344 0.375576 0.368664 0.37404 0.384793 0.307988 0.158986 0.164363 0.180492 0.260369 0.349462 0.384025 0.333333 0.245008 0.300307 0.328725 0.414747 0.417051 0.421659 0.431644 0.435484 0.441628 0.450845 0.463134 0.460061 0.466206 0.461598 0.446237 0.461598 0.456221 0.478495 0.408602 0.500768 0.489247 0.448541 0.238863 0.256528 0.241935 0.292627 0.380184 0.459293 0.515361 0.426267 0.546083 0.558372 0.269585 0.473118 0.278034 0.301075 0.373272 0.46851 0.341782 0.254992 0.201229 0.286482 0.349462 0.419355 0.505376 0.516897 0.513057 0.519201 0.519969 0.521505 0.522273 0.524578 0.52765 0.530722 0.533026 0.533026 0.536098 0.533026 0.530722 0.533794 0.543779 0.539171 0.544547 0.552995 0.55914 0.56682 0.572965 0.577573 0.580645 0.573733 0.597542 0.602151 0.528418 0.606759 0.61828 0.624424 0.629032 0.635177 0.637481 0.643625 0.569124 0.582949 0.622888 0.605991 0.615207 0.645929 0.651306 0.659754 0.671275 0.683564 0.699693 0.719662 0.743472 0.71275 0.608295 0.412442 0.239631 0.201997 0.221966 0.327957 0.452381 0.529186 0.379416 0.394009 0.614439 0.701997 0.688172 0.6298 0.581413 0.656682 0.655146 0.637481 0.639785 0.651306 0.664363 0.670507 0.68126 0.691244 0.694316 0.694316 0.697389 0.691244 0.582181 0.764209 0.756528 0.768817 0.827189 0.538402 0.517665 0.477727 0.378648 0.309524 0.301843 0.284946 0.30722 0.309524 0.316436 0.314132 0.298003 0.269585 0.256528 0.253456 0.268817 0.28341 0.340246 0.463134 0.530722 0.695853 0.777266 0.602151 0.516129 0.436252 0.473118 0.43318 0.772657 0.50768 0.688172 0.640553 0.361751 0.293395 0.35023 0.332565 0.420891 0.411674 0.294931 0.229647 0.22427 0.247312 0.306452 0.360983 0.357911 0.31874 0.313364 0.265745 0.218126 0.242704 0.353303 0.392473 0.59447 0.732719 0.788786 0.880952 0.860983 0.884793 0.668203 0.612135 0.868664 0.877112 0.864055 0.843318 0.867896 0.869432 0.865591 0.837174 0.847926 0.863287 0.792627 0.466974 0.824885 0.854071 0.857143 0.83871 0.832565 0.819508 0.810292 0.805684 0.806452 0.808756 0.811828 0.816436 0.825653 0.834869 0.84255 0.83871 0.75192 0.413978 0.198925 0.456221 0.797235 0.849462 0.821813 0.695853 0.804916 0.799539 0.815668 0.813364 0.808756 0.801075 0.798771 0.798003 0.800307 0.804916 0.808756 0.813364 0.814132 0.819508 0.827189 0.834101 0.835637 0.84639 0.841014 0.834101 0.751152 0.849462 0.777266 0.334101 0.288018 0.439324 0.868664 0.948541 0.929339 0.862519 0.606759 0.971582 1 0.78341 0.524578 0.675115 0.384793 0.412442 0.286482 0.284946 0.290323 0.291091 0.291859 0.294163 0.314132 0.483871 0.778034 0.75192 0.639785 0.460829 0.862519 0.880184 0.85023 0.8702 0.864055 0.871736 0.84255 0.831797 0.743472 0.630568 0.549155 0.490783 0.410138 0.311828 0.326421 0.246544 0.331029 0.347926 0.288018 0.308756 0.450077 0.541475 0.655146 0.655914 0.731183 0.792627 0.777266 0.713518 0.423963 0.235791 0.400922 0.239631 0.228111 0.22427 0.217358 0.233487 0.286482 0.428571 0.438556 0.560676 0.49232 0.191244 0.178955 0.196621 0.164363 0.294931 0.329493 0.488479 0.282642 0.495392 0.544547 0.764209 0.74424 0.738863 0.743472 0.74808 0.758065 0.710445 0.6298 0.525346 0.281874 0.525346 0.396313 0.293395 0.366359 0.333333 0.502304 0.771889 0.461598 0.326421 0.484639 0.491551 0.558372 0.692012 0.703533 0.398618 0.307988 0.264977 0.227343 0.208141 0.201229 0.261137 0.378648 0.612135 0.731951 0.711214 0.754992 0.729647 0.709677 0.696621 0.682796 0.668971 0.656682 0.645161 0.635177 0.639017 0.641321 0.635945 0.634409 0.623656 0.627496 0.627496 0.625192 0.629032 0.6298 0.623656 0.621352 0.619816 0.619048 0.610599 0.600614 0.596774 0.587558 0.587558 0.579877 0.576805 0.573733 0.574501 0.573733 0.573733 0.569892 0.572965 0.568356 0.565284 0.564516 0.56298 0.561444 0.556836 0.556068 0.556068 0.553763 0.550691 0.551459 0.552995 0.552995 0.552995 0.5553 0.556836 0.556836 0.557604 0.473118 0.281874 0.367896 0.454685 0.489247 0.563748 0.504608 0.316436 0.459293 0.596006 0.606759 0.610599 0.609831 0.604455 0.596774 0.582181 0.571429 0.564516 0.551459 0.56298 0.506912 0.529954 0.384793 0.452381 0.490015 0.559908 0.536866 0.526882 0.503072 0.52381 0.530722 0.528418 0.548387 0.541475 0.50384 0.473118 0.484639 0.435484 0.302611 0.261137 0.225038 0.284178 0.380952 0.447773 0.408602 0.354839 0.395545 0.416283 0.417819 0.414747 0.411674 0.40553 0.400154 0.396313 0.394009 0.390169 0.387865 0.385561 0.385561 0.384793 0.383257 0.382488 0.37788 0.375576 0.372504 0.369432 0.367127 0.363287 0.360983 0.360215 0.360215 0.360983 0.358679 0.366359 0.333333 0.3702 0.371736 0.380952 0.325653 0.179724 0.168203 0.178187 0.288018 0.394009 0.390169 0.388633 0.384793 0.341014 0.339478 0.349462 0.357143 0.348694 0.337174 0.325653 0.314132 0.30722 0.295699 0.302611 0.297235 0.288018 0.282642 0.305684 0.30722 0.310292 0.310292 0.310292 0.306452 0.281874 0.210445 0.127496 0.112903 0.109831 0.169739 0.191244 0.257296 0.261137 0.261137 0.260369 0.253456 0.247312 0.222734 0.21275 0.22043 0.242704 0.232719 0.229647 0.221198 0.211982 0.204301 0.196621 0.188172 0.196621 0.191244 0.182028 0.162058 0.179724 0.18126 0.175115 0.170507 0.167435 0.164363 0.160522 0.154378 0.149002 0.143625 0.139785 0.135945 0.132873 0.130568 0.127496 0.122888 0.119048 0.114439 0.109831 0.105223 0.0975422 0.0898618 0.0906298 0.0890937 0.0852535 0.0821813 0.0791091 0.0760369 0.0729647 0.0706605 0.0683564 0.0660522 0.0637481 0.0614439 0.0591398 0.0568356 0.0545315 0.0522273 0.0499232 0.0483871 0.046851 0.0437788 0.0399386 0.0391705 0.0376344 0.0368664 0.0360983 0.0360983 0.0353303 0.0345622 0.0337942 0.0330261 0.0322581 0.03149 0.030722 0.0291859 0.0284178 0.0261137 0.0238095 0.0222734 0.0199693 0.0176651 0.016129 0.015361 0.0138249 0.0122888 0.0122888 0.0115207 0.0115207 0.0107527 0.00998464 0.00998464 0.00921659 0.00844854 0.00768049 0.00691244 0.00691244 0.00614439 0.00614439 0.00614439 0.00614439 0.00537634 0.00537634 0.00537634 0.00537634 0.00460829 0.00460829 0.00460829 0.00384025 0.00384025 0.00384025 0.00384025 0.00384025 0.00384025 0.00384025 0.00384025 0.00384025 0.00384025 0.00384025 0.00384025 0.00384025 0.00384025 0.00384025 0.00384025 0.00384025 0.00384025 0.00384025 0.00384025 0.00384025 0.00384025 0.00384025 0.00384025 0.00384025 0.00384025 0.00384025 0.00384025 0.00384025 0.00384025 0.00384025 0.00384025 0.00384025 0.00384025 0.00384025 0.00384025 0.00384025 0.00384025 0.00384025 0.00384025 0.00384025 0.00384025 0.00384025 0.00384025 0.00384025 0.00384025 0.00384025 0.00384025 0.00384025 0.00384025 0.00384025 0.00384025 0.00384025 0.00384025 0.00384025 0.00384025 0.00384025 0.00384025 0.00384025 0.00384025 0.00384025 0.00384025 0.00384025 0.00384025 0.00384025 0.00384025 0.00384025 0.00384025 0.00384025 0.00384025 0.00384025 0.00384025 0.00384025 0.00384025 0.00384025 0.00384025 0.00384025 0.00384025 0.00384025 0.00384025 0.00384025 0.00384025 0.00384025 0.00384025 0.00384025 0.00384025 0.00384025 0.00384025 0.00384025 0.00384025 0.00384025 0.00384025 0.00384025 0.00384025 0.00384025 0.00384025 0.00384025 0.00384025 0.00384025 0.00384025 0.00384025 0.00384025 0.00384025 0.00384025 0.00384025 0.00384025 0.00384025 0.00384025 0.00384025 0.00384025 0.00384025 0.00384025 0.00384025 0.00384025 0.00384025 0.00384025 0.00384025 0.00384025 0.00384025 0.00384025 0.00384025 0.00384025 0.00384025 0.00384025 0.00384025 0.00384025 0.00384025 0.00384025 0.00384025 0.00384025 0.00384025 0.00384025 0.00384025 0.00384025 0.00384025 0.00384025 0.00384025 0.00384025 0.00384025 0.00384025 0.00384025 0.00384025 0.00384025 0.00384025 0.00384025 0.00384025 0.00384025 0.00384025 0.00384025 0.00384025 0.00384025 0.00384025 0.00384025 0.00384025 0.00384025 0.00384025 0.00384025 0.00384025 0.00384025 0.00384025 0.00384025 0.00384025 0.00384025 0.00384025 0.00384025 0.00384025 0.00384025 0.00384025 0.00384025 0.00384025 0.00384025 0.00384025 0.00384025 0.00384025 0.00384025 0.00384025 0.00384025 0.00384025 0.00384025 0.00384025 0.00384025 0.00384025 0.00384025 0.00384025 0.00384025 0.00384025 0.00384025 0.00384025 0.00384025 0.00384025 0.00384025 0.00384025 0.00384025 0.00384025 0.00384025 0.00384025 0.00384025 0.00384025 0.00384025 0.00384025 0.00384025 0.00384025 0.00384025 0.00384025 0.00384025 0.00384025 0.00384025 0.00384025 0.00384025 0.00384025 0.00384025 0.00384025 0.00384025 0.00384025 0.00384025 0.00384025 0.00384025 0.00384025 0.00384025 0.00384025 0.00384025 0.00384025 0.00384025 0.00384025 0.00384025 0.00384025 0.00384025 0.00384025 0.00384025 0.00384025 0.00384025 0.00384025 0.00384025 0.00384025 0.00384025 0.00384025 0.00384025 0.00384025 0.00384025 0.00384025 0.00384025 0.00384025 0.00384025 0.00384025 0.00384025 0.00384025 0.00384025 0.00384025 0.00384025 0.00384025 0.00384025 0.00384025 0.00384025 0.00384025 0.00384025 0.00384025 0.00384025 0.00384025 0.00384025 0.00384025 0.00384025 0.00384025 0.00384025 0.00384025 0.00384025 0.00384025 0.00384025 0.00384025 0.00384025 0.00384025 0.00384025 0.00384025 0.00384025 0.00384025 0.00384025 0.00384025 0.00384025 0.00384025 0.00384025 0.00384025 0.00384025 0.00384025 0.00384025 0.00384025 0.00384025 0.00384025 0.00384025 0.00384025 0.00384025 0.00384025 0.00384025 0.00384025 0.00384025 0.00384025 0.00384025 0.00384025 0.00384025 0.00384025] action=normalize
New "PVSystem.myPV" phases=3 conn=delta bus1=PVBus kV=0.48 kva=200 pmpp=200 daily=pvshape %R=50 %X=50 kP=0.1 KVDC=0.700 PITol=0.1 

! Grid forming inverter controls
New InvControl.StoCtrl_Storage DERList=[Storage.mystorage] mode=GFM
New InvControl.StoCtrl_PV DERList=[PVSystem.myPV] mode=GFM

! Monitors for time series data collection
New "Monitor.pvmonitor" element=pvsystem.mypv mode=1 terminal=1 PPolar=no residual=no VIPolar=yes
New "Monitor.pvvi" element=pvsystem.mypv mode=0 terminal=1
New "Monitor.pvstatevars" element=pvsystem.mypv mode=3 terminal=1
New "Monitor.stomonitor" element=storage.mystorage mode=1 terminal=1 PPolar=no residual=no VIPolar=yes
New "Monitor.stovi" element=storage.mystorage mode=0 terminal=1
New "Monitor.stostatevars" element=storage.mystorage mode=3 terminal=1

! Grid voltage monitor for all nodes
New "Monitor.gridvoltages" element=line.LINE1 mode=0 terminal=1 VIPolar=yes

// ! LV side voltage monitors
// New "Monitor.lv_storage_bus" element=transformer.tsto1 mode=0 terminal=1 VIPolar=yes
New "Monitor.lv_pv_bus" element=transformer.tpv1 mode=0 terminal=1 VIPolar=yes
// New "Monitor.lv_610_bus" element=transformer.xfm1 mode=0 terminal=2 VIPolar=yes

! Bus coordinates for visualization
Buscoords BusCoords.dat

! Initial settings for time series simulation
Set LoadMult=1.0
// edit storage.mystorage ControlMode=GFM SafeVoltage=0
// Edit Storage.mystorage kP=0.5

! Set solution mode for time series with hourly resolution
set mode=daily
set stepsize=1m
set number=1440  ! 24 hours
set loadshapeclass=daily
set time=(0,0)  ! Start at midnight

! Initial solve
calcv
solve
